Missing ".ends" statement in file "C:\Users\z004ftpx\Downloads\MMSZ5240B.spice.txt"
Circuit: * E:\Personal\Projects\ACDC150V24\01_Requirments\SIMULATION\Feedback_circuit.asc

WARNING: Specified period is not longer than the sum of Trise, Tfall, and Ton for v1.  Increasing period to 15
WARNING: Node N002 is floating.

Direct Newton iteration for .op point succeeded.

Date: Tue Sep 12 13:30:04 2023
Total elapsed time: 0.208 seconds.

tnom = 27
temp = 27
method = modified trap
totiter = 36093
traniter = 36075
tranpoints = 8674
accept = 6587
rejected = 2087
matrix size = 27
fillins = 16
solver = Normal
Matrix Compiler1: 1.98 KB object code size  0.3/0.2/[0.1]
Matrix Compiler2: 2.35 KB object code size  0.1/0.2/[0.1]

