Circuit: * E:\Personal\Projects\ACDC150V24\01_Requirments\SIMULATION\Draft1.asc

Fatal Error: Too few nodes: eee8c5c7a2bc4b01f045f303678664e7916da0bae22e8cb0bba041dd67c69ce448ea70148a9ac1670c8926c1ac5057c8ccfcd77bf87ca9dc18e4f2544b6717ca
