Circuit: * E:\Personal\Projects\ADC-60-24\01_Requirments\EMI_IN_FILT_DM_NODAMPING.asc

Number of points per decade reduced from 20000 to 9224.
C1: Increased Cpar to 1e-012
C2: Increased Cpar to 1e-012

Date: Wed Apr 19 11:37:47 2023
Total elapsed time: 0.455 seconds.

tnom = 27
temp = 27
method = trap
totiter = 0
traniter = 0
tranpoints = 0
accept = 0
rejected = 0
matrix size = 46
fillins = 168
solver = Normal

